Distrib/IEEETestCases/ShortCircuitCases/123Bus/4kvckt_VLN_Node.Txt

NODE-GROUND VOLTAGES BY BUS & NODE

Bus       Node    V (kV)    Angle      p.u.   Base kV

sourcebus  1     7.9669 /_    0.0   0.99993    13.800
   -       2     7.9665 /_ -120.0   0.99988    13.800
   -       3     7.9666 /_  120.0   0.99989    13.800
1 .......  1     2.3915 /_  -30.4   0.99571     4.160
   -       2     2.3816 /_ -150.9   0.99159     4.160
   -       3     2.3826 /_   89.2   0.99202     4.160
3 .......  1     2.3905 /_  -30.4   0.99528     4.160
   -       2     2.3768 /_ -150.9   0.98958     4.160
   -       3     2.3813 /_   89.1   0.99148     4.160
3l ......  1    0.23438 /_  -32.1   0.97823     0.415
4 .......  2     2.3752 /_ -150.9   0.98894     4.160
   -       1     2.3904 /_  -30.4   0.99524     4.160
   -       3      2.381 /_   89.1   0.99134     4.160
4l ......  2    0.23272 /_ -152.7   0.97129     0.415
6 .......  2     2.3723 /_ -151.0   0.98773     4.160
   -       1     2.3904 /_  -30.4   0.99525     4.160
   -       3       2.38 /_   89.0   0.99091     4.160
6l ......  2    0.23527 /_ -151.7   0.98191     0.415
8 .......  2     2.3698 /_ -151.0    0.9867     4.160
   -       1     2.3904 /_  -30.4   0.99527     4.160
   -       3     2.3787 /_   88.9   0.99041     4.160
8l ......  2    0.23242 /_ -152.7   0.97004     0.415
9 .......  2     2.3694 /_ -151.0   0.98653     4.160
   -       1     2.3904 /_  -30.4   0.99528     4.160
   -       3     2.3784 /_   88.9   0.99027     4.160
9l ......  2    0.23452 /_ -151.9    0.9788     0.415
11 ......  1     2.3904 /_  -30.4   0.99528     4.160
   -       2     2.3686 /_ -151.0   0.98617     4.160
   -       3      2.377 /_   88.9   0.98967     4.160
11l .....  1     0.2379 /_  -30.8   0.99291     0.415
12 ......  1     2.3904 /_  -30.4   0.99527     4.160
   -       2     2.3684 /_ -151.0   0.98611     4.160
   -       3     2.3762 /_   88.9   0.98937     4.160
12l .....  1    0.23681 /_  -31.2   0.98837     0.415
14 ......  1     2.3902 /_  -30.4    0.9952     4.160
   -       2     2.3686 /_ -151.0   0.98617     4.160
   -       3     2.3752 /_   88.8   0.98893     4.160
14l .....  1     0.2374 /_  -31.1   0.99083     0.415
16 ......  2     2.3738 /_ -151.0   0.98833     4.160
   -       1     2.3903 /_  -30.4   0.99521     4.160
   -       3     2.3806 /_   89.0   0.99118     4.160
16l .....  2    0.23388 /_ -152.2   0.97612     0.415
17 ......  1     2.3902 /_  -30.4   0.99518     4.160
   -       2     2.3737 /_ -151.0    0.9883     4.160
   -       3     2.3805 /_   89.0   0.99116     4.160
17l .....  1    0.27105 /_  -31.8    1.1312     0.415
   -       2    0.26911 /_ -152.3    1.1232     0.415
   -       3    0.26991 /_   87.7    1.1265     0.415
18 ......  3     2.3791 /_   88.9   0.99057     4.160
   -       1     2.3906 /_  -30.4   0.99533     4.160
   -       2     2.3706 /_ -151.0   0.98703     4.160
18l .....  3    0.23376 /_   87.4   0.97562     0.415
19 ......  3     2.3791 /_   88.9   0.99054     4.160
   -       1     2.3906 /_  -30.4   0.99534     4.160
   -       2     2.3703 /_ -151.0    0.9869     4.160
19l .....  3    0.23463 /_   87.7   0.97926     0.415
20 ......  2     2.3699 /_ -151.0   0.98672     4.160
   -       1     2.3905 /_  -30.4    0.9953     4.160
   -       3     2.3792 /_   88.9   0.99061     4.160
20l .....  2    0.23387 /_ -152.2   0.97609     0.415
21 ......  3     2.3792 /_   88.9   0.99061     4.160
   -       1     2.3905 /_  -30.4   0.99531     4.160
   -       2     2.3699 /_ -151.0   0.98672     4.160
21l .....  3    0.23702 /_   88.6   0.98922     0.415
22 ......  2     2.3679 /_ -151.0   0.98588     4.160
   -       1     2.3904 /_  -30.4   0.99527     4.160
   -       3     2.3778 /_   88.9   0.99002     4.160
22l .....  2    0.23092 /_ -153.1   0.96378     0.415
23 ......  2     2.3674 /_ -151.0   0.98569     4.160
   -       1     2.3904 /_  -30.4   0.99527     4.160
   -       3     2.3778 /_   88.9   0.99001     4.160
23l .....  2    0.23381 /_ -152.1   0.97585     0.415
24 ......  2     2.3671 /_ -151.0   0.98555     4.160
   -       1     2.3904 /_  -30.4   0.99528     4.160
   -       3     2.3777 /_   88.9   0.98997     4.160
24l .....  2    0.23161 /_ -152.9   0.96665     0.415
26 ......  3     2.3773 /_   88.9   0.98982     4.160
26l .....  3    0.23357 /_   87.4   0.97485     0.415
27 ......  3     2.3772 /_   88.9   0.98975     4.160
   -       1     2.3907 /_  -30.4    0.9954     4.160
   -       2     2.3684 /_ -151.0   0.98611     4.160
27l .....  3    0.23425 /_   87.6   0.97766     0.415
28 ......  3     2.3767 /_   88.9   0.98954     4.160
   -       2     2.3681 /_ -151.0   0.98599     4.160
28l .....  3    0.23338 /_   87.3   0.97404     0.415
29 ......  2      2.368 /_ -151.0   0.98594     4.160
29l .....  2    0.23523 /_ -151.6   0.98176     0.415
30 ......  3     2.3749 /_   88.8    0.9888     4.160
30l .....  3    0.23357 /_   87.4   0.97483     0.415
31 ......  3     2.3741 /_   88.8   0.98846     4.160
31l .....  3    0.23289 /_   87.2   0.97198     0.415
32 ......  2     2.3678 /_ -151.0   0.98585     4.160
32l .....  2    0.23482 /_ -151.7   0.98007     0.415
33 ......  2     2.3672 /_ -151.0   0.98561     4.160
33l .....  2    0.23518 /_ -151.6   0.98155     0.415
34 ......  2     2.3671 /_ -151.0   0.98555     4.160
34l .....  2    0.23357 /_ -152.2   0.97484     0.415
35 ......  3     2.3744 /_   88.8    0.9886     4.160
35l .....  3    0.23328 /_   87.3   0.97364     0.415
36 ......  3     2.3742 /_   88.8   0.98851     4.160
36l .....  3    0.23516 /_   88.0   0.98148     0.415
37 ......  3     2.3741 /_   88.8   0.98847     4.160
37l .....  3    0.23536 /_   88.0    0.9823     0.415
38 ......  1     2.3899 /_  -30.5   0.99504     4.160
38l .....  1     0.2362 /_  -31.5   0.98583     0.415
39 ......  1     2.3896 /_  -30.5   0.99492     4.160
39l .....  1    0.23684 /_  -31.3   0.98848     0.415
40 ......  1     2.3893 /_  -30.5   0.99482     4.160
40l .....  1    0.23383 /_  -32.3   0.97593     0.415
41 ......  1     2.3892 /_  -30.5   0.99477     4.160
41l .....  1    0.23659 /_  -31.3   0.98744     0.415
2 .......  1     2.3911 /_  -30.4   0.99558     4.160
   -       2     2.3799 /_ -150.9   0.99089     4.160
   -       3     2.3822 /_   89.2   0.99186     4.160
5 .......  1     2.3903 /_  -30.4   0.99523     4.160
   -       2     2.3738 /_ -151.0   0.98837     4.160
   -       3     2.3806 /_   89.0   0.99117     4.160
7 .......  1     2.3905 /_  -30.4   0.99529     4.160
   -       2     2.3708 /_ -151.0   0.98712     4.160
   -       3     2.3792 /_   88.9   0.99061     4.160
10 ......  1     2.3905 /_  -30.4   0.99531     4.160
   -       2     2.3686 /_ -151.0   0.98621     4.160
   -       3     2.3776 /_   88.9   0.98995     4.160
25 ......  1     2.3906 /_  -30.4   0.99533     4.160
   -       2      2.367 /_ -151.0   0.98552     4.160
   -       3     2.3774 /_   88.9   0.98986     4.160
13 ......  1     2.3904 /_  -30.4   0.99527     4.160
   -       2     2.3683 /_ -151.0   0.98605     4.160
   -       3     2.3758 /_   88.8   0.98918     4.160
15 ......  1     2.3902 /_  -30.5   0.99516     4.160
   -       2     2.3687 /_ -151.0   0.98625     4.160
   -       3     2.3747 /_   88.8   0.98873     4.160
